lig3
  xed2sdf           3D
 
 47 50  0  0  0  0  0  0  0  0999 V2000
   26.7912   12.0328   30.2788 C   0  0  0  0  0  0  0  0  0  0  0  0
   26.1017   11.8243   29.1411 C   0  0  0  0  0  0  0  0  0  0  0  0
   24.7031   12.0399   29.0900 C   0  0  0  0  0  0  0  0  0  0  0  0
   24.0419   12.4585   30.1790 C   0  0  0  0  0  0  0  0  0  0  0  0
   24.7442   12.6864   31.3932 C   0  0  0  0  0  0  0  0  0  0  0  0
   24.0683   13.1008   32.4593 N   0  0  0  0  0  0  0  0  0  0  0  0
   24.6927   13.3113   33.6343 N   0  0  0  0  0  0  0  0  0  0  0  0
   25.9867   13.1285   33.7683 C   0  0  0  0  0  0  0  0  0  0  0  0
   26.7792   12.7121   32.6826 C   0  0  0  0  0  0  0  0  0  0  0  0
   26.1431   12.4760   31.4684 C   0  0  0  0  0  0  0  0  0  0  0  0
   28.1544   12.5299   32.8200 N   0  0  0  0  0  0  0  0  0  0  0  0
   28.9241   12.8467   34.0414 C   0  0  0  0  0  0  0  0  0  0  0  0
   29.1583   11.6887   35.0424 C   0  0  0  0  0  0  0  0  0  0  0  0
   30.1088    9.2812   35.2850 C   0  0  0  0  0  0  0  0  0  0  0  0
   29.4061   10.3020   34.3869 C   0  0  0  0  0  0  0  0  0  0  0  0
   30.9083    8.3125   34.7148 C   0  0  0  0  0  0  0  0  0  0  0  0
   31.5256    7.3626   35.4965 C   0  0  0  0  0  0  0  0  0  0  0  0
   31.3509    7.3755   36.8607 C   0  0  0  0  0  0  0  0  0  0  0  0
   30.5610    8.3411   37.4400 C   0  0  0  0  0  0  0  0  0  0  0  0
   29.9436    9.2875   36.6547 C   0  0  0  0  0  0  0  0  0  0  0  0
   28.1367    9.6566   33.8264 C   0  0  0  0  0  0  0  0  0  0  0  0
   28.0892    9.2891   32.4989 C   0  0  0  0  0  0  0  0  0  0  0  0
   26.9530    8.7186   31.9725 C   0  0  0  0  0  0  0  0  0  0  0  0
   25.8544    8.5074   32.7729 C   0  0  0  0  0  0  0  0  0  0  0  0
   25.8953    8.8649   34.1004 C   0  0  0  0  0  0  0  0  0  0  0  0
   27.0323    9.4357   34.6235 C   0  0  0  0  0  0  0  0  0  0  0  0
   30.0129   13.2065   33.6827 H   0  0  0  0  0  0  0  0  0  0  0  0
   28.4556   13.7829   34.6285 H   0  0  0  0  0  0  0  0  0  0  0  0
   30.1183   11.9641   35.7107 H   0  0  0  0  0  0  0  0  0  0  0  0
   28.2113   11.6143   35.7741 H   0  0  0  0  0  0  0  0  0  0  0  0
   27.7764   11.8713   30.2793 H   0  0  0  0  0  0  0  0  0  0  0  0
   26.5842   11.5136   28.3220 H   0  0  0  0  0  0  0  0  0  0  0  0
   24.2041   11.8797   28.2385 H   0  0  0  0  0  0  0  0  0  0  0  0
   23.0545   12.6095   30.1372 H   0  0  0  0  0  0  0  0  0  0  0  0
   28.6201   12.3280   32.1027 H   0  0  0  0  0  0  0  0  0  0  0  0
   31.0356    8.2958   33.7231 H   0  0  0  0  0  0  0  0  0  0  0  0
   32.0994    6.6618   35.0725 H   0  0  0  0  0  0  0  0  0  0  0  0
   31.7972    6.6849   37.4300 H   0  0  0  0  0  0  0  0  0  0  0  0
   30.4331    8.3538   38.4318 H   0  0  0  0  0  0  0  0  0  0  0  0
   29.3667    9.9842   37.0806 H   0  0  0  0  0  0  0  0  0  0  0  0
   28.8850    9.4417   31.9128 H   0  0  0  0  0  0  0  0  0  0  0  0
   26.9257    8.4583   31.0075 H   0  0  0  0  0  0  0  0  0  0  0  0
   25.0280    8.0942   32.3908 H   0  0  0  0  0  0  0  0  0  0  0  0
   25.0987    8.7112   34.6851 H   0  0  0  0  0  0  0  0  0  0  0  0
   27.0574    9.6939   35.5891 H   0  0  0  0  0  0  0  0  0  0  0  0
   30.1533   10.5202   33.4710 H   0  0  0  0  0  0  0  0  0  0  0  0
   26.4098   13.2861   34.6593 H   0  0  0  0  0  0  0  0  0  0  0  0
  1  2  2  0
  1 10  1  0
  2  3  1  0
  3  4  2  0
  4  5  1  0
  5  6  1  0
  5 10  2  0
  6  7  2  0
  7  8  1  0
  8  9  2  0
  9 10  1  0
  9 11  1  0
 11 12  1  0
 12 13  1  0
 13 15  1  0
 14 15  1  0
 14 16  2  0
 14 20  1  0
 15 21  1  0
 16 17  1  0
 17 18  2  0
 18 19  1  0
 19 20  2  0
 21 22  2  0
 21 26  1  0
 22 23  1  0
 23 24  2  0
 24 25  1  0
 25 26  2  0
  1 31  1  0
  2 32  1  0
  3 33  1  0
  4 34  1  0
  8 47  1  0
 11 35  1  0
 12 27  1  0
 12 28  1  0
 13 29  1  0
 13 30  1  0
 15 46  1  0
 16 36  1  0
 17 37  1  0
 18 38  1  0
 19 39  1  0
 20 40  1  0
 22 41  1  0
 23 42  1  0
 24 43  1  0
 25 44  1  0
 26 45  1  0
M  END
>  <Favorite_cresset>
false

>  <Protein_cresset>
3STD_P

>  <SlogP_cresset>
5.3

>  <_cresset_fieldpoints2>
 2
    -5      22.804955      13.610836      33.666771    -19.3555
    -5      33.032066       9.944659      36.397957     -3.4753
    -5      28.334221       6.801364      34.934074     -7.0100
    -6      27.249355      13.572891      36.593407      4.2953
    -6      27.371073      10.636801      37.584167      4.6941
    -6      29.744907      11.358953      30.894058     14.2606
    -7      28.929974      14.677166      31.140533     -2.1399
    -7      30.349312      11.136826      30.953102     -2.7343
    -7      31.307957       9.447193      31.519156     -2.2005
    -7      28.961704       9.744538      29.331924     -2.0591
    -7      23.430450      10.982750      33.773674     -2.6180
    -7      24.163067       8.953966      30.018642     -2.2956
    -7      26.107372      15.391706      29.768875     -1.9237
    -7      21.481758      11.945904      28.002913     -0.9634
    -7      23.985271      15.579020      32.649757     -1.6384
    -7      25.914454      11.652904      36.745850     -2.2504
    -7      27.165483      13.567993      36.997597     -1.7802
    -7      29.002558      12.103147      38.253349     -1.7681
    -7      32.453400      11.532213      34.453396     -2.3349
    -7      27.085196      10.614431      37.806099     -2.2687
    -7      33.346985       4.655069      36.443153     -0.9697
    -7      31.520678       6.518461      40.143375     -0.9701
    -7      28.217777       6.360612      34.930511     -3.1333
    -8      25.443287      12.239239      30.237593      6.9388
    -8      27.000599       9.089412      33.299767      7.2513
    -8      30.725735       8.333755      36.070538      7.2140
    -8      29.003185      10.105644      34.838394      5.9956

$$$$
