lig1
  xed2sdf           3D
 
 46 49  0  0  0  0  0  0  0  0999 V2000
   26.7741   12.0347   30.2765 C   0  0  0  0  0  0  0  0  0  0  0  0
   26.0790   11.8221   29.1284 C   0  0  0  0  0  0  0  0  0  0  0  0
   24.6939   12.0380   29.0819 C   0  0  0  0  0  0  0  0  0  0  0  0
   24.0323   12.4592   30.1829 C   0  0  0  0  0  0  0  0  0  0  0  0
   24.7346   12.6840   31.3900 C   0  0  0  0  0  0  0  0  0  0  0  0
   24.0784   13.0972   32.4845 N   0  0  0  0  0  0  0  0  0  0  0  0
   24.7371   13.3057   33.5964 N   0  0  0  0  0  0  0  0  0  0  0  0
   26.0583   13.1272   33.7189 N   0  0  0  0  0  0  0  0  0  0  0  0
   26.7719   12.7148   32.6802 C   0  0  0  0  0  0  0  0  0  0  0  0
   26.1260   12.4711   31.4413 C   0  0  0  0  0  0  0  0  0  0  0  0
   28.1370   12.5240   32.8403 N   0  0  0  0  0  0  0  0  0  0  0  0
   28.8320   12.8455   34.0994 C   0  0  0  0  0  0  0  0  0  0  0  0
   29.1467   11.6796   35.0701 C   0  0  0  0  0  0  0  0  0  0  0  0
   30.1154    9.2789   35.2723 C   0  0  0  0  0  0  0  0  0  0  0  0
   29.4149   10.3102   34.3867 C   0  0  0  0  0  0  0  0  0  0  0  0
   30.9085    8.3022   34.7061 C   0  0  0  0  0  0  0  0  0  0  0  0
   31.5164    7.3520   35.4953 C   0  0  0  0  0  0  0  0  0  0  0  0
   31.3389    7.3737   36.8597 C   0  0  0  0  0  0  0  0  0  0  0  0
   30.5529    8.3459   37.4326 C   0  0  0  0  0  0  0  0  0  0  0  0
   29.9440    9.2908   36.6406 C   0  0  0  0  0  0  0  0  0  0  0  0
   28.1509    9.6599   33.8244 C   0  0  0  0  0  0  0  0  0  0  0  0
   28.0998    9.2901   32.4976 C   0  0  0  0  0  0  0  0  0  0  0  0
   26.9573    8.7266   31.9776 C   0  0  0  0  0  0  0  0  0  0  0  0
   25.8602    8.5247   32.7831 C   0  0  0  0  0  0  0  0  0  0  0  0
   25.9085    8.8791   34.1111 C   0  0  0  0  0  0  0  0  0  0  0  0
   27.0513    9.4412   34.6284 C   0  0  0  0  0  0  0  0  0  0  0  0
   29.8783   13.3578   33.8057 H   0  0  0  0  0  0  0  0  0  0  0  0
   28.1993   13.6668   34.7055 H   0  0  0  0  0  0  0  0  0  0  0  0
   30.1173   11.9775   35.7118 H   0  0  0  0  0  0  0  0  0  0  0  0
   28.2384   11.5591   35.8448 H   0  0  0  0  0  0  0  0  0  0  0  0
   27.7597   11.8755   30.2841 H   0  0  0  0  0  0  0  0  0  0  0  0
   26.5600   11.5092   28.3096 H   0  0  0  0  0  0  0  0  0  0  0  0
   24.1940   11.8794   28.2303 H   0  0  0  0  0  0  0  0  0  0  0  0
   23.0449   12.6115   30.1427 H   0  0  0  0  0  0  0  0  0  0  0  0
   28.6235   12.2854   32.1477 H   0  0  0  0  0  0  0  0  0  0  0  0
   31.0380    8.2798   33.7146 H   0  0  0  0  0  0  0  0  0  0  0  0
   32.0861    6.6447   35.0773 H   0  0  0  0  0  0  0  0  0  0  0  0
   31.7801    6.6840   37.4334 H   0  0  0  0  0  0  0  0  0  0  0  0
   30.4217    8.3649   38.4235 H   0  0  0  0  0  0  0  0  0  0  0  0
   29.3685    9.9927   37.0598 H   0  0  0  0  0  0  0  0  0  0  0  0
   28.8947    9.4383   31.9091 H   0  0  0  0  0  0  0  0  0  0  0  0
   26.9235    8.4654   31.0130 H   0  0  0  0  0  0  0  0  0  0  0  0
   25.0287    8.1192   32.4045 H   0  0  0  0  0  0  0  0  0  0  0  0
   25.1144    8.7300   34.6999 H   0  0  0  0  0  0  0  0  0  0  0  0
   27.0832    9.6964   35.5945 H   0  0  0  0  0  0  0  0  0  0  0  0
   30.1576   10.5600   33.4758 H   0  0  0  0  0  0  0  0  0  0  0  0
  1  2  2  0
  1 10  1  0
  2  3  1  0
  3  4  2  0
  4  5  1  0
  5  6  1  0
  5 10  2  0
  6  7  2  0
  7  8  1  0
  8  9  2  0
  9 10  1  0
  9 11  1  0
 11 12  1  0
 12 13  1  0
 13 15  1  0
 14 15  1  0
 14 16  2  0
 14 20  1  0
 15 21  1  0
 16 17  1  0
 17 18  2  0
 18 19  1  0
 19 20  2  0
 21 22  2  0
 21 26  1  0
 22 23  1  0
 23 24  2  0
 24 25  1  0
 25 26  2  0
  1 31  1  0
  2 32  1  0
  3 33  1  0
  4 34  1  0
 11 35  1  0
 12 27  1  0
 12 28  1  0
 13 29  1  0
 13 30  1  0
 15 46  1  0
 16 36  1  0
 17 37  1  0
 18 38  1  0
 19 39  1  0
 20 40  1  0
 22 41  1  0
 23 42  1  0
 24 43  1  0
 25 44  1  0
 26 45  1  0
M  END
>  <Favorite_cresset>
false

>  <Protein_cresset>
3STD_P

>  <SlogP_cresset>
4.7

>  <_cresset_fieldpoints2>
 2
    -5      25.139278      13.474726      35.361885    -16.2274
    -5      22.973326      13.623852      33.956146    -16.1899
    -5      33.025269       9.943880      36.394398     -3.5673
    -5      28.327499       6.806944      34.971657     -7.0629
    -6      29.692356      11.341596      30.870270     15.4323
    -6      31.282707       7.023073      40.050148      2.1825
    -6      27.393185      10.476479      37.682838      3.6591
    -7      30.324444      11.134520      30.908537     -2.6511
    -7      26.041349      15.362974      29.593491     -1.8391
    -7      29.082115      14.512946      31.046026     -2.0094
    -7      21.470413      11.975275      28.001877     -0.9643
    -7      28.925077       9.732910      29.311274     -2.0520
    -7      24.173149       8.948626      30.019810     -2.2936
    -7      25.700659      12.159372      35.758816     -2.9267
    -7      25.093159      15.556493      33.081856     -1.7194
    -7      29.217598      12.117083      38.294853     -1.7434
    -7      27.083656      10.478207      37.865543     -2.1946
    -7      31.320442       9.471468      31.526001     -2.1983
    -7      28.212637       6.358500      34.933594     -3.1308
    -7      32.471901      11.520603      34.536911     -2.2832
    -7      33.293129       4.624174      36.459389     -0.9700
    -7      31.492502       6.540669      40.151745     -0.9700
    -7      23.881737      11.329851      34.269867     -2.6336
    -8      25.424828      12.235594      30.222731      6.9410
    -8      27.013203       9.093533      33.304607      7.2390
    -8      30.719284       8.328695      36.061001      7.2153
    -8      28.987354      10.093948      34.876434      6.0319
    -8      28.241518       9.670582      33.913773      5.8174

$$$$
